data_

_audit_creation_date      'June 11, 2021'
_audit_creation_method    'Draft CIF file generated with Atomsk'
 
_chemical_name_common             ?
_chemical_melting_point           ?
_chemical_formula_iupac           'C108 H108 Fe6 N72'
_chemical_formula_moiety          'C108 H108 Fe6 N72'
_chemical_formula_sum             'C108 H108 Fe6 N72'
_chemical_formula_weight          2749.626
_chemical_compound_source         ?
_chemical_absolute_configuration  ?
_exptl_crystal_description        'EDIT-ENTRY'
_diffrn_measurement_device_type   'EDIT-ENTRY'
 
_space_group_IT_number            1
_space_group_crystal_system       hexagonal
_symmetry_space_group_name_Hall   'P 1'
_symmetry_space_group_name_H-M    'P 1'
 
loop_
_space_group_symop_operation_xyz
'+x,+y,+z'
 
_cell_length_a                    22.6476
_cell_length_b                    22.6476
_cell_length_c                    7.4471
_cell_angle_alpha                 90.0000
_cell_angle_beta                  90.0000
_cell_angle_gamma                 120.0000
_cell_volume                      2864.7902
 
loop_
 _atom_site_label
 _atom_site_type_symbol
 _atom_site_fract_x
 _atom_site_fract_y
 _atom_site_fract_z
 _atom_site_occupancy
 _atom_site_thermal_displace_type
 _atom_site_B_iso_or_equiv
C1  C  0.787900  0.149100  0.525200 1.000000 Biso 1.000000
H1  H  0.756700  0.136900  0.426400 1.000000 Biso 1.000000
C2  C  0.782900  0.157600  0.783300 1.000000 Biso 1.000000
H2  H  0.747300  0.151100  0.864800 1.000000 Biso 1.000000
C3  C  0.454570  0.482430  0.858530 1.000000 Biso 1.000000
H3  H  0.423370  0.470230  0.759730 1.000000 Biso 1.000000
C4  C  0.449570  0.490930  0.116630 1.000000 Biso 1.000000
H4  H  0.413970  0.484430  0.198130 1.000000 Biso 1.000000
C5  C  0.121230  0.815770  0.191870 1.000000 Biso 1.000000
H5  H  0.090030  0.803570  0.093070 1.000000 Biso 1.000000
C6  C  0.116230  0.824270  0.449970 1.000000 Biso 1.000000
H6  H  0.080630  0.817770  0.531470 1.000000 Biso 1.000000
C7  C  0.850900  0.638800  0.525200 1.000000 Biso 1.000000
H7  H  0.863100  0.619800  0.426400 1.000000 Biso 1.000000
C8  C  0.842400  0.625300  0.783300 1.000000 Biso 1.000000
H8  H  0.848900  0.596200  0.864800 1.000000 Biso 1.000000
C9  C  0.517570  0.972130  0.858530 1.000000 Biso 1.000000
H9  H  0.529770  0.953130  0.759730 1.000000 Biso 1.000000
C10  C  0.509070  0.958630  0.116630 1.000000 Biso 1.000000
H10  H  0.515570  0.929530  0.198130 1.000000 Biso 1.000000
C11  C  0.184230  0.305470  0.191870 1.000000 Biso 1.000000
H11  H  0.196430  0.286470  0.093070 1.000000 Biso 1.000000
C12  C  0.175730  0.291970  0.449970 1.000000 Biso 1.000000
H12  H  0.182230  0.262870  0.531470 1.000000 Biso 1.000000
C13  C  0.361200  0.212100  0.525200 1.000000 Biso 1.000000
H13  H  0.380200  0.243300  0.426400 1.000000 Biso 1.000000
C14  C  0.374700  0.217100  0.783300 1.000000 Biso 1.000000
H14  H  0.403800  0.252700  0.864800 1.000000 Biso 1.000000
C15  C  0.027870  0.545430  0.858530 1.000000 Biso 1.000000
H15  H  0.046870  0.576630  0.759730 1.000000 Biso 1.000000
C16  C  0.041370  0.550430  0.116630 1.000000 Biso 1.000000
H16  H  0.070470  0.586030  0.198130 1.000000 Biso 1.000000
C17  C  0.694530  0.878770  0.191870 1.000000 Biso 1.000000
H17  H  0.713530  0.909970  0.093070 1.000000 Biso 1.000000
C18  C  0.708030  0.883770  0.449970 1.000000 Biso 1.000000
H18  H  0.737130  0.919370  0.531470 1.000000 Biso 1.000000
C19  C  0.149100  0.787900  0.474800 1.000000 Biso 1.000000
H19  H  0.136900  0.756700  0.573600 1.000000 Biso 1.000000
C20  C  0.157600  0.782900  0.216700 1.000000 Biso 1.000000
H20  H  0.151100  0.747300  0.135200 1.000000 Biso 1.000000
C21  C  0.815770  0.121230  0.808130 1.000000 Biso 1.000000
H21  H  0.803570  0.090030  0.906930 1.000000 Biso 1.000000
C22  C  0.824270  0.116230  0.550030 1.000000 Biso 1.000000
H22  H  0.817770  0.080630  0.468530 1.000000 Biso 1.000000
C23  C  0.482430  0.454570  0.141470 1.000000 Biso 1.000000
H23  H  0.470230  0.423370  0.240270 1.000000 Biso 1.000000
C24  C  0.490930  0.449570  0.883370 1.000000 Biso 1.000000
H24  H  0.484430  0.413970  0.801870 1.000000 Biso 1.000000
C25  C  0.638800  0.850900  0.474800 1.000000 Biso 1.000000
H25  H  0.619800  0.863100  0.573600 1.000000 Biso 1.000000
C26  C  0.625300  0.842400  0.216700 1.000000 Biso 1.000000
H26  H  0.596200  0.848900  0.135200 1.000000 Biso 1.000000
C27  C  0.305470  0.184230  0.808130 1.000000 Biso 1.000000
H27  H  0.286470  0.196430  0.906930 1.000000 Biso 1.000000
C28  C  0.291970  0.175730  0.550030 1.000000 Biso 1.000000
H28  H  0.262870  0.182230  0.468530 1.000000 Biso 1.000000
C29  C  0.972130  0.517570  0.141470 1.000000 Biso 1.000000
H29  H  0.953130  0.529770  0.240270 1.000000 Biso 1.000000
C30  C  0.958630  0.509070  0.883370 1.000000 Biso 1.000000
H30  H  0.929530  0.515570  0.801870 1.000000 Biso 1.000000
C31  C  0.212100  0.361200  0.474800 1.000000 Biso 1.000000
H31  H  0.243300  0.380200  0.573600 1.000000 Biso 1.000000
C32  C  0.217100  0.374700  0.216700 1.000000 Biso 1.000000
H32  H  0.252700  0.403800  0.135200 1.000000 Biso 1.000000
C33  C  0.878770  0.694530  0.808130 1.000000 Biso 1.000000
H33  H  0.909970  0.713530  0.906930 1.000000 Biso 1.000000
C34  C  0.883770  0.708030  0.550030 1.000000 Biso 1.000000
H34  H  0.919370  0.737130  0.468530 1.000000 Biso 1.000000
C35  C  0.545430  0.027870  0.141470 1.000000 Biso 1.000000
H35  H  0.576630  0.046870  0.240270 1.000000 Biso 1.000000
C36  C  0.550430  0.041370  0.883370 1.000000 Biso 1.000000
H36  H  0.586030  0.070470  0.801870 1.000000 Biso 1.000000
C37  C  0.212100  0.850900  0.474800 1.000000 Biso 1.000000
H37  H  0.243300  0.863100  0.573600 1.000000 Biso 1.000000
C38  C  0.217100  0.842400  0.216700 1.000000 Biso 1.000000
H38  H  0.252700  0.848900  0.135200 1.000000 Biso 1.000000
C39  C  0.878770  0.184230  0.808130 1.000000 Biso 1.000000
H39  H  0.909970  0.196430  0.906930 1.000000 Biso 1.000000
C40  C  0.883770  0.175730  0.550030 1.000000 Biso 1.000000
H40  H  0.919370  0.182230  0.468530 1.000000 Biso 1.000000
C41  C  0.545430  0.517570  0.141470 1.000000 Biso 1.000000
H41  H  0.576630  0.529770  0.240270 1.000000 Biso 1.000000
C42  C  0.550430  0.509070  0.883370 1.000000 Biso 1.000000
H42  H  0.586030  0.515570  0.801870 1.000000 Biso 1.000000
C43  C  0.149100  0.361200  0.474800 1.000000 Biso 1.000000
H43  H  0.136900  0.380200  0.573600 1.000000 Biso 1.000000
C44  C  0.157600  0.374700  0.216700 1.000000 Biso 1.000000
H44  H  0.151100  0.403800  0.135200 1.000000 Biso 1.000000
C45  C  0.815770  0.694530  0.808130 1.000000 Biso 1.000000
H45  H  0.803570  0.713530  0.906930 1.000000 Biso 1.000000
C46  C  0.824270  0.708030  0.550030 1.000000 Biso 1.000000
H46  H  0.817770  0.737130  0.468530 1.000000 Biso 1.000000
C47  C  0.482430  0.027870  0.141470 1.000000 Biso 1.000000
H47  H  0.470230  0.046870  0.240270 1.000000 Biso 1.000000
C48  C  0.490930  0.041370  0.883370 1.000000 Biso 1.000000
H48  H  0.484430  0.070470  0.801870 1.000000 Biso 1.000000
C49  C  0.638800  0.787900  0.474800 1.000000 Biso 1.000000
H49  H  0.619800  0.756700  0.573600 1.000000 Biso 1.000000
C50  C  0.625300  0.782900  0.216700 1.000000 Biso 1.000000
H50  H  0.596200  0.747300  0.135200 1.000000 Biso 1.000000
C51  C  0.305470  0.121230  0.808130 1.000000 Biso 1.000000
H51  H  0.286470  0.090030  0.906930 1.000000 Biso 1.000000
C52  C  0.291970  0.116230  0.550030 1.000000 Biso 1.000000
H52  H  0.262870  0.080630  0.468530 1.000000 Biso 1.000000
C53  C  0.972130  0.454570  0.141470 1.000000 Biso 1.000000
H53  H  0.953130  0.423370  0.240270 1.000000 Biso 1.000000
C54  C  0.958630  0.449570  0.883370 1.000000 Biso 1.000000
H54  H  0.929530  0.413970  0.801870 1.000000 Biso 1.000000
C55  C  0.850900  0.212100  0.525200 1.000000 Biso 1.000000
H55  H  0.863100  0.243300  0.426400 1.000000 Biso 1.000000
C56  C  0.842400  0.217100  0.783300 1.000000 Biso 1.000000
H56  H  0.848900  0.252700  0.864800 1.000000 Biso 1.000000
C57  C  0.517570  0.545430  0.858530 1.000000 Biso 1.000000
H57  H  0.529770  0.576630  0.759730 1.000000 Biso 1.000000
C58  C  0.509070  0.550430  0.116630 1.000000 Biso 1.000000
H58  H  0.515570  0.586030  0.198130 1.000000 Biso 1.000000
C59  C  0.184230  0.878770  0.191870 1.000000 Biso 1.000000
H59  H  0.196430  0.909970  0.093070 1.000000 Biso 1.000000
C60  C  0.175730  0.883770  0.449970 1.000000 Biso 1.000000
H60  H  0.182230  0.919370  0.531470 1.000000 Biso 1.000000
C61  C  0.361200  0.149100  0.525200 1.000000 Biso 1.000000
H61  H  0.380200  0.136900  0.426400 1.000000 Biso 1.000000
C62  C  0.374700  0.157600  0.783300 1.000000 Biso 1.000000
H62  H  0.403800  0.151100  0.864800 1.000000 Biso 1.000000
C63  C  0.027870  0.482430  0.858530 1.000000 Biso 1.000000
H63  H  0.046870  0.470230  0.759730 1.000000 Biso 1.000000
C64  C  0.041370  0.490930  0.116630 1.000000 Biso 1.000000
H64  H  0.070470  0.484430  0.198130 1.000000 Biso 1.000000
C65  C  0.694530  0.815770  0.191870 1.000000 Biso 1.000000
H65  H  0.713530  0.803570  0.093070 1.000000 Biso 1.000000
C66  C  0.708030  0.824270  0.449970 1.000000 Biso 1.000000
H66  H  0.737130  0.817770  0.531470 1.000000 Biso 1.000000
C67  C  0.787900  0.638800  0.525200 1.000000 Biso 1.000000
H67  H  0.756700  0.619800  0.426400 1.000000 Biso 1.000000
C68  C  0.782900  0.625300  0.783300 1.000000 Biso 1.000000
H68  H  0.747300  0.596200  0.864800 1.000000 Biso 1.000000
C69  C  0.454570  0.972130  0.858530 1.000000 Biso 1.000000
H69  H  0.423370  0.953130  0.759730 1.000000 Biso 1.000000
C70  C  0.449570  0.958630  0.116630 1.000000 Biso 1.000000
H70  H  0.413970  0.929530  0.198130 1.000000 Biso 1.000000
C71  C  0.121230  0.305470  0.191870 1.000000 Biso 1.000000
H71  H  0.090030  0.286470  0.093070 1.000000 Biso 1.000000
C72  C  0.116230  0.291970  0.449970 1.000000 Biso 1.000000
H72  H  0.080630  0.262870  0.531470 1.000000 Biso 1.000000
Fe1  Fe  0.666670  0.333330  0.333330 1.000000 Biso 1.000000
Fe2  Fe  0.333330  0.666670  0.666670 1.000000 Biso 1.000000
Fe3  Fe  0.000000  0.000000  0.000000 1.000000 Biso 1.000000
Fe4  Fe  0.666670  0.333330  0.833330 1.000000 Biso 1.000000
Fe5  Fe  0.333330  0.666670  0.166670 1.000000 Biso 1.000000
Fe6  Fe  0.000000  0.000000  0.500000 1.000000 Biso 1.000000
N1  N  0.743370  0.256630  0.462800 1.000000 Biso 1.000000
N2  N  0.710670  0.289330  0.509500 1.000000 Biso 1.000000
N3  N  0.708170  0.291830  0.686500 1.000000 Biso 1.000000
N4  N  0.739220  0.260780  0.759700 1.000000 Biso 1.000000
C73  C  0.798070  0.201930  0.641400 1.000000 Biso 1.000000
C74  C  0.760570  0.239430  0.618400 1.000000 Biso 1.000000
N5  N  0.410040  0.589960  0.796130 1.000000 Biso 1.000000
N6  N  0.377340  0.622660  0.842830 1.000000 Biso 1.000000
N7  N  0.374840  0.625160  0.019830 1.000000 Biso 1.000000
N8  N  0.405890  0.594110  0.093030 1.000000 Biso 1.000000
C75  C  0.464740  0.535260  0.974730 1.000000 Biso 1.000000
C76  C  0.427240  0.572760  0.951730 1.000000 Biso 1.000000
N9  N  0.076700  0.923300  0.129470 1.000000 Biso 1.000000
N10  N  0.044000  0.956000  0.176170 1.000000 Biso 1.000000
N11  N  0.041500  0.958500  0.353170 1.000000 Biso 1.000000
N12  N  0.072550  0.927450  0.426370 1.000000 Biso 1.000000
C77  C  0.131400  0.868600  0.308070 1.000000 Biso 1.000000
C78  C  0.093900  0.906100  0.285070 1.000000 Biso 1.000000
N13  N  0.743370  0.486740  0.462800 1.000000 Biso 1.000000
N14  N  0.710670  0.421340  0.509500 1.000000 Biso 1.000000
N15  N  0.708170  0.416340  0.686500 1.000000 Biso 1.000000
N16  N  0.739220  0.478440  0.759700 1.000000 Biso 1.000000
C79  C  0.798070  0.596140  0.641400 1.000000 Biso 1.000000
C80  C  0.760570  0.521140  0.618400 1.000000 Biso 1.000000
N17  N  0.410040  0.820070  0.796130 1.000000 Biso 1.000000
N18  N  0.377340  0.754670  0.842830 1.000000 Biso 1.000000
N19  N  0.374840  0.749670  0.019830 1.000000 Biso 1.000000
N20  N  0.405890  0.811770  0.093030 1.000000 Biso 1.000000
C81  C  0.464740  0.929470  0.974730 1.000000 Biso 1.000000
C82  C  0.427240  0.854470  0.951730 1.000000 Biso 1.000000
N21  N  0.076700  0.153410  0.129470 1.000000 Biso 1.000000
N22  N  0.044000  0.088010  0.176170 1.000000 Biso 1.000000
N23  N  0.041500  0.083010  0.353170 1.000000 Biso 1.000000
N24  N  0.072550  0.145110  0.426370 1.000000 Biso 1.000000
C83  C  0.131400  0.262810  0.308070 1.000000 Biso 1.000000
C84  C  0.093900  0.187810  0.285070 1.000000 Biso 1.000000
N25  N  0.513260  0.256630  0.462800 1.000000 Biso 1.000000
N26  N  0.578660  0.289330  0.509500 1.000000 Biso 1.000000
N27  N  0.583660  0.291830  0.686500 1.000000 Biso 1.000000
N28  N  0.521560  0.260780  0.759700 1.000000 Biso 1.000000
C85  C  0.403860  0.201930  0.641400 1.000000 Biso 1.000000
C86  C  0.478860  0.239430  0.618400 1.000000 Biso 1.000000
N29  N  0.179930  0.589960  0.796130 1.000000 Biso 1.000000
N30  N  0.245330  0.622660  0.842830 1.000000 Biso 1.000000
N31  N  0.250330  0.625160  0.019830 1.000000 Biso 1.000000
N32  N  0.188230  0.594110  0.093030 1.000000 Biso 1.000000
C87  C  0.070530  0.535260  0.974730 1.000000 Biso 1.000000
C88  C  0.145530  0.572760  0.951730 1.000000 Biso 1.000000
N33  N  0.846590  0.923300  0.129470 1.000000 Biso 1.000000
N34  N  0.911990  0.956000  0.176170 1.000000 Biso 1.000000
N35  N  0.916990  0.958500  0.353170 1.000000 Biso 1.000000
N36  N  0.854890  0.927450  0.426370 1.000000 Biso 1.000000
C89  C  0.737190  0.868600  0.308070 1.000000 Biso 1.000000
C90  C  0.812190  0.906100  0.285070 1.000000 Biso 1.000000
N37  N  0.256630  0.743370  0.537200 1.000000 Biso 1.000000
N38  N  0.289330  0.710670  0.490500 1.000000 Biso 1.000000
N39  N  0.291830  0.708170  0.313500 1.000000 Biso 1.000000
N40  N  0.260780  0.739220  0.240300 1.000000 Biso 1.000000
C91  C  0.201930  0.798070  0.358600 1.000000 Biso 1.000000
C92  C  0.239430  0.760570  0.381600 1.000000 Biso 1.000000
N41  N  0.923300  0.076700  0.870530 1.000000 Biso 1.000000
N42  N  0.956000  0.044000  0.823830 1.000000 Biso 1.000000
N43  N  0.958500  0.041500  0.646830 1.000000 Biso 1.000000
N44  N  0.927450  0.072550  0.573630 1.000000 Biso 1.000000
C93  C  0.868600  0.131400  0.691930 1.000000 Biso 1.000000
C94  C  0.906100  0.093900  0.714930 1.000000 Biso 1.000000
N45  N  0.589960  0.410040  0.203870 1.000000 Biso 1.000000
N46  N  0.622660  0.377340  0.157170 1.000000 Biso 1.000000
N47  N  0.625160  0.374840  0.980170 1.000000 Biso 1.000000
N48  N  0.594110  0.405890  0.906970 1.000000 Biso 1.000000
C95  C  0.535260  0.464740  0.025270 1.000000 Biso 1.000000
C96  C  0.572760  0.427240  0.048270 1.000000 Biso 1.000000
N49  N  0.486740  0.743370  0.537200 1.000000 Biso 1.000000
N50  N  0.421340  0.710670  0.490500 1.000000 Biso 1.000000
N51  N  0.416340  0.708170  0.313500 1.000000 Biso 1.000000
N52  N  0.478440  0.739220  0.240300 1.000000 Biso 1.000000
C97  C  0.596140  0.798070  0.358600 1.000000 Biso 1.000000
C98  C  0.521140  0.760570  0.381600 1.000000 Biso 1.000000
N53  N  0.153410  0.076700  0.870530 1.000000 Biso 1.000000
N54  N  0.088010  0.044000  0.823830 1.000000 Biso 1.000000
N55  N  0.083010  0.041500  0.646830 1.000000 Biso 1.000000
N56  N  0.145110  0.072550  0.573630 1.000000 Biso 1.000000
C99  C  0.262810  0.131400  0.691930 1.000000 Biso 1.000000
C100  C  0.187810  0.093900  0.714930 1.000000 Biso 1.000000
N57  N  0.820070  0.410040  0.203870 1.000000 Biso 1.000000
N58  N  0.754670  0.377340  0.157170 1.000000 Biso 1.000000
N59  N  0.749670  0.374840  0.980170 1.000000 Biso 1.000000
N60  N  0.811770  0.405890  0.906970 1.000000 Biso 1.000000
C101  C  0.929470  0.464740  0.025270 1.000000 Biso 1.000000
C102  C  0.854470  0.427240  0.048270 1.000000 Biso 1.000000
N61  N  0.256630  0.513260  0.537200 1.000000 Biso 1.000000
N62  N  0.289330  0.578660  0.490500 1.000000 Biso 1.000000
N63  N  0.291830  0.583660  0.313500 1.000000 Biso 1.000000
N64  N  0.260780  0.521560  0.240300 1.000000 Biso 1.000000
C103  C  0.201930  0.403860  0.358600 1.000000 Biso 1.000000
C104  C  0.239430  0.478860  0.381600 1.000000 Biso 1.000000
N65  N  0.923300  0.846590  0.870530 1.000000 Biso 1.000000
N66  N  0.956000  0.911990  0.823830 1.000000 Biso 1.000000
N67  N  0.958500  0.916990  0.646830 1.000000 Biso 1.000000
N68  N  0.927450  0.854890  0.573630 1.000000 Biso 1.000000
C105  C  0.868600  0.737190  0.691930 1.000000 Biso 1.000000
C106  C  0.906100  0.812190  0.714930 1.000000 Biso 1.000000
N69  N  0.589960  0.179930  0.203870 1.000000 Biso 1.000000
N70  N  0.622660  0.245330  0.157170 1.000000 Biso 1.000000
N71  N  0.625160  0.250330  0.980170 1.000000 Biso 1.000000
N72  N  0.594110  0.188230  0.906970 1.000000 Biso 1.000000
C107  C  0.535260  0.070530  0.025270 1.000000 Biso 1.000000
C108  C  0.572760  0.145530  0.048270 1.000000 Biso 1.000000
H73  H  0.085450  0.170900  0.017700 1.000000 Biso 1.000000
H74  H  0.078000  0.156000  0.543700 1.000000 Biso 1.000000
H75  H  0.752120  0.504230  0.351030 1.000000 Biso 1.000000
H76  H  0.744670  0.489330  0.877030 1.000000 Biso 1.000000
H77  H  0.418780  0.837570  0.684370 1.000000 Biso 1.000000
H78  H  0.411330  0.822670  0.210370 1.000000 Biso 1.000000
H79  H  0.829100  0.914550  0.017700 1.000000 Biso 1.000000
H80  H  0.844000  0.922000  0.543700 1.000000 Biso 1.000000
H81  H  0.495770  0.247880  0.351030 1.000000 Biso 1.000000
H82  H  0.510670  0.255330  0.877030 1.000000 Biso 1.000000
H83  H  0.162430  0.581220  0.684370 1.000000 Biso 1.000000
H84  H  0.177330  0.588670  0.210370 1.000000 Biso 1.000000
H85  H  0.085450  0.914550  0.017700 1.000000 Biso 1.000000
H86  H  0.078000  0.922000  0.543700 1.000000 Biso 1.000000
H87  H  0.752120  0.247880  0.351030 1.000000 Biso 1.000000
H88  H  0.744670  0.255330  0.877030 1.000000 Biso 1.000000
H89  H  0.418780  0.581220  0.684370 1.000000 Biso 1.000000
H90  H  0.411330  0.588670  0.210370 1.000000 Biso 1.000000
H91  H  0.170900  0.085450  0.982300 1.000000 Biso 1.000000
H92  H  0.156000  0.078000  0.456300 1.000000 Biso 1.000000
H93  H  0.837570  0.418780  0.315630 1.000000 Biso 1.000000
H94  H  0.822670  0.411330  0.789630 1.000000 Biso 1.000000
H95  H  0.504230  0.752120  0.648970 1.000000 Biso 1.000000
H96  H  0.489330  0.744670  0.122970 1.000000 Biso 1.000000
H97  H  0.914550  0.829100  0.982300 1.000000 Biso 1.000000
H98  H  0.922000  0.844000  0.456300 1.000000 Biso 1.000000
H99  H  0.581220  0.162430  0.315630 1.000000 Biso 1.000000
H100  H  0.588670  0.177330  0.789630 1.000000 Biso 1.000000
H101  H  0.247880  0.495770  0.648970 1.000000 Biso 1.000000
H102  H  0.255330  0.510670  0.122970 1.000000 Biso 1.000000
H103  H  0.914550  0.085450  0.982300 1.000000 Biso 1.000000
H104  H  0.922000  0.078000  0.456300 1.000000 Biso 1.000000
H105  H  0.581220  0.418780  0.315630 1.000000 Biso 1.000000
H106  H  0.588670  0.411330  0.789630 1.000000 Biso 1.000000
H107  H  0.247880  0.752120  0.648970 1.000000 Biso 1.000000
H108  H  0.255330  0.744670  0.122970 1.000000 Biso 1.000000
