data_DAXJET01_cleanC2/m
# Symmetrized structure with precision = 1e-10
_cell_length_a                  39.22679
_cell_length_b                  22.6476
_cell_length_c                  7.4471
_cell_angle_alpha               90
_cell_angle_beta                90
_cell_angle_gamma               90
_symmetry_space_group_name_H-M  'C2/m'
_symmetry_Int_Tables_number     12

loop_
_atom_site_label
_atom_site_type_symbol
_atom_site_occupancy
_atom_site_fract_x
_atom_site_fract_y
_atom_site_fract_z
C C 1.0 0.3194000 0.4685000 0.5252000
H H 1.0 0.3099000 0.4468000 0.4264000
C C 1.0 0.3126500 0.4702500 0.7833000
H H 1.0 0.2981000 0.4492000 0.8648000
C C 1.0 0.9860700 0.4685000 0.8585300
H H 1.0 0.9765700 0.4468000 0.7597300
C C 1.0 0.9793200 0.4702500 0.1166300
H H 1.0 0.9647700 0.4492000 0.1981300
C C 1.0 0.6527300 0.4685000 0.1918700
H H 1.0 0.6432300 0.4468000 0.0930700
C C 1.0 0.6459800 0.4702500 0.4499700
H H 1.0 0.6314300 0.4492000 0.5314700
C C 1.0 0.1060500 0.7448500 0.5252000
H H 1.0 0.1216500 0.7414500 0.4264000
C C 1.0 0.1085500 0.7338500 0.7833000
H H 1.0 0.1263500 0.7225500 0.8648000
C C 1.0 0.7727200 0.7448500 0.8585300
H H 1.0 0.7883200 0.7414500 0.7597300
C C 1.0 0.7752200 0.7338500 0.1166300
H H 1.0 0.7930200 0.7225500 0.1981300
C C 1.0 0.9393800 0.2448500 0.1918700
H H 1.0 0.9549800 0.2414500 0.0930700
C C 1.0 0.9418800 0.2338500 0.4499700
H H 1.0 0.9596800 0.2225500 0.5314700
C C 1.0 0.0745500 0.2866500 0.5252000
H H 1.0 0.0684500 0.3117500 0.4264000
C C 1.0 0.0788000 0.2959000 0.7833000
H H 1.0 0.0755500 0.3282500 0.8648000
C C 1.0 0.7412200 0.2866500 0.8585300
H H 1.0 0.7351200 0.3117500 0.7597300
C C 1.0 0.7454700 0.2959000 0.1166300
H H 1.0 0.7422200 0.3282500 0.1981300
C C 1.0 0.9078800 0.7866500 0.1918700
H H 1.0 0.9017800 0.8117500 0.0930700
C C 1.0 0.9121300 0.7959000 0.4499700
H H 1.0 0.9088800 0.8282500 0.5314700
Fe Fe 1.0 0.1666700 0.5000000 0.3333300
Fe Fe 1.0 0.0000000 0.0000000 0.0000000
Fe Fe 1.0 0.1666700 0.5000000 0.8333300
Fe Fe 1.0 0.0000000 0.0000000 0.5000000
N N 1.0 0.2433700 0.5000000 0.4628000
N N 1.0 0.2106700 0.5000000 0.5095000
N N 1.0 0.2081700 0.5000000 0.6865000
N N 1.0 0.2392200 0.5000000 0.7597000
C C 1.0 0.2980700 0.5000000 0.6414000
C C 1.0 0.2605700 0.5000000 0.6184000
N N 1.0 0.9100400 0.5000000 0.7961300
N N 1.0 0.8773400 0.5000000 0.8428300
N N 1.0 0.8748400 0.5000000 0.0198300
N N 1.0 0.9058900 0.5000000 0.0930300
C C 1.0 0.9647400 0.5000000 0.9747300
C C 1.0 0.9272400 0.5000000 0.9517300
N N 1.0 0.5767000 0.5000000 0.1294700
N N 1.0 0.5440000 0.5000000 0.1761700
N N 1.0 0.5415000 0.5000000 0.3531700
N N 1.0 0.5725500 0.5000000 0.4263700
C C 1.0 0.6314000 0.5000000 0.3080700
C C 1.0 0.5939000 0.5000000 0.2850700
N N 1.0 0.1283150 0.6150550 0.4628000
N N 1.0 0.1446650 0.5660050 0.5095000
N N 1.0 0.1459150 0.5622550 0.6865000
N N 1.0 0.1303900 0.6088300 0.7597000
C C 1.0 0.1009650 0.6971050 0.6414000
C C 1.0 0.1197150 0.6408550 0.6184000
N N 1.0 0.7949850 0.6150550 0.7961300
N N 1.0 0.8113350 0.5660050 0.8428300
N N 1.0 0.8125850 0.5622550 0.0198300
N N 1.0 0.7970600 0.6088300 0.0930300
C C 1.0 0.7676350 0.6971050 0.9747300
C C 1.0 0.7863850 0.6408550 0.9517300
N N 1.0 0.9616450 0.1150550 0.1294700
N N 1.0 0.9779950 0.0660050 0.1761700
N N 1.0 0.9792450 0.0622550 0.3531700
N N 1.0 0.9637200 0.1088300 0.4263700
C C 1.0 0.9342950 0.1971050 0.3080700
C C 1.0 0.9530450 0.1408550 0.2850700
H H 1.0 0.9572750 0.1281750 0.0177000
H H 1.0 0.9610000 0.1170000 0.5437000
H H 1.0 0.1239450 0.6281750 0.3510300
H H 1.0 0.1276700 0.6170000 0.8770300
H H 1.0 0.7906050 0.6281750 0.6843700
H H 1.0 0.7943300 0.6170000 0.2103700
H H 1.0 0.5854500 0.5000000 0.0177000
H H 1.0 0.5780000 0.5000000 0.5437000
H H 1.0 0.2521200 0.5000000 0.3510300
H H 1.0 0.2446700 0.5000000 0.8770300
H H 1.0 0.9187800 0.5000000 0.6843700
H H 1.0 0.9113300 0.5000000 0.2103700
