data_ODONEB_cleanC222_1
# Symmetrized structure with precision = 1e-10
_cell_length_a                  12.5611
_cell_length_b                  21.75646
_cell_length_c                  62.471
_cell_angle_alpha               90
_cell_angle_beta                90
_cell_angle_gamma               90
_symmetry_space_group_name_H-M  'C222_1'
_symmetry_Int_Tables_number     20

loop_
_atom_site_label
_atom_site_type_symbol
_atom_site_occupancy
_atom_site_fract_x
_atom_site_fract_y
_atom_site_fract_z
Ni Ni 1.0 0.3914050 0.7971350 0.4166700
Ni Ni 1.0 0.5000000 0.9057300 0.7500000
Ni Ni 1.0 0.5220750 0.8259750 0.5833300
Ni Ni 1.0 0.5000000 0.8480500 0.2500000
H H 1.0 0.5634000 0.5998000 0.4443000
H H 1.0 0.6431500 0.6467500 0.4340000
H H 1.0 0.7584000 0.8548000 0.5202000
H H 1.0 0.3188500 0.3036500 0.5331000
H H 1.0 0.8358500 0.8944500 0.4716000
H H 1.0 0.3963500 0.3961500 0.4497000
H H 1.0 0.5126000 0.9215000 0.4182000
H H 1.0 0.6070500 0.9808500 0.4417000
H H 1.0 0.5268000 0.8647000 0.4882000
H H 1.0 0.4350500 0.8081500 0.4640000
H H 1.0 0.6869000 0.9959000 0.4758000
H H 1.0 0.6922500 0.9386500 0.4910000
H H 1.0 0.5312000 0.9707000 0.5073000
H H 1.0 0.5012000 0.8733000 0.6291000
H H 1.0 0.3767500 0.9045500 0.6528000
H H 1.0 0.1511000 0.8513000 0.6114000
H H 1.0 0.2833500 0.8196500 0.5892000
H H 1.0 0.1834000 0.9432000 0.6575000
H H 1.0 0.0961500 0.9135500 0.6427000
H H 1.0 0.6235000 0.3191000 0.6594000
H H 1.0 0.5409500 0.6379500 0.4713000
H H 1.0 0.6427000 0.7516000 0.5274000
H H 1.0 0.7951500 0.8199500 0.4391000
H H 1.0 0.5609000 0.3465000 0.4925000
H H 1.0 0.1180000 0.9184000 0.7776300
H H 1.0 0.1485500 0.8550500 0.7673300
H H 1.0 0.4030000 0.6934000 0.8535300
H H 1.0 0.7960500 0.1887500 0.8664300
H H 1.0 0.4237500 0.6348500 0.8049300
H H 1.0 0.8960500 0.1037500 0.7830300
H H 1.0 0.6259500 0.7829500 0.7515300
H H 1.0 0.6677500 0.7060500 0.7750300
H H 1.0 0.5336500 0.8042500 0.8215300
H H 1.0 0.4947000 0.8784000 0.7973300
H H 1.0 0.6504000 0.6586000 0.8091300
H H 1.0 0.5618500 0.6845500 0.8243300
H H 1.0 0.6904500 0.7490500 0.8406300
H H 1.0 0.5593500 0.8127500 0.9624300
H H 1.0 0.6684500 0.8593500 0.9861300
H H 1.0 0.7014000 0.9988000 0.9447300
H H 1.0 0.5878000 0.9485000 0.9225300
H H 1.0 0.8231000 0.9367000 0.9908300
H H 1.0 0.8222500 0.9951500 0.9760300
H H 1.0 0.6669000 0.0287000 0.9927300
H H 1.0 0.1864500 0.9105500 0.8046300
H H 1.0 0.3060500 0.8028500 0.8607300
H H 1.0 0.3323500 0.6924500 0.7724300
H H 1.0 0.7393000 0.0463000 0.8258300
H H 1.0 0.8186000 0.9818000 0.1109700
H H 1.0 0.7083000 0.9982000 0.1006700
H H 1.0 0.3386000 0.9518000 0.1868700
H H 1.0 0.3851000 0.0076000 0.1997700
H H 1.0 0.2404000 0.9707000 0.1382700
H H 1.0 0.2076000 0.0001000 0.1163700
H H 1.0 0.3614500 0.7955500 0.0848700
H H 1.0 0.2252000 0.8131000 0.1083700
H H 1.0 0.4395500 0.8310500 0.1548700
H H 1.0 0.5702500 0.8134500 0.1306700
H H 1.0 0.1627000 0.8455000 0.1424700
H H 1.0 0.2459000 0.8768000 0.1576700
H H 1.0 0.2783500 0.7802500 0.1739700
H H 1.0 0.4394500 0.8139500 0.2957700
H H 1.0 0.4548000 0.7361000 0.3194700
H H 1.0 0.6475000 0.6499000 0.2780700
H H 1.0 0.6288500 0.7318500 0.2558700
H H 1.0 0.4935000 0.6201000 0.3241700
H H 1.0 0.5816000 0.5913000 0.3093700
H H 1.0 0.2096000 0.1522000 0.3260700
H H 1.0 0.7726000 0.9515000 0.1379700
H H 1.0 0.5512500 0.9455500 0.1940700
H H 1.0 0.3725000 0.9876000 0.1057700
H H 1.0 0.1998000 0.1072000 0.1591700
C C 1.0 0.6310000 0.7071000 0.4690300
C C 1.0 0.6879000 0.7636000 0.4985900
C C 1.0 0.7446000 0.7860000 0.4654600
C C 1.0 0.5716000 0.6420000 0.4395800
C C 1.0 0.4951000 0.6771000 0.4259900
C C 1.0 0.7490500 0.8204500 0.5299600
C C 1.0 0.6985500 0.8430500 0.5504300
C C 1.0 0.3736500 0.3694500 0.4612600
C C 1.0 0.4723000 0.3415000 0.4719900
C C 1.0 0.5156000 0.9095000 0.4324500
C C 1.0 0.5728500 0.9456500 0.4465900
C C 1.0 0.5794000 0.9298000 0.4678900
C C 1.0 0.5255500 0.8771500 0.4739900
C C 1.0 0.4703500 0.8432500 0.4593100
C C 1.0 0.6441000 0.9662000 0.4836000
C C 1.0 0.4298000 0.8691000 0.6253900
C C 1.0 0.3554000 0.8886000 0.6397100
C C 1.0 0.2483000 0.8848000 0.6347800
C C 1.0 0.2219000 0.8569000 0.6153000
C C 1.0 0.3021500 0.8380500 0.6020800
C C 1.0 0.1616500 0.9055500 0.6503900
C C 1.0 0.2451500 0.8309500 0.8023600
C C 1.0 0.3014500 0.7742500 0.8319200
C C 1.0 0.3067000 0.7347000 0.7987900
C C 1.0 0.1772000 0.8932000 0.7729100
C C 1.0 0.2681000 0.9139000 0.7593200
C C 1.0 0.3561500 0.7152500 0.8632900
C C 1.0 0.4153000 0.7292000 0.8837600
C C 1.0 0.8673500 0.1284500 0.7945900
C C 1.0 0.7761000 0.0931000 0.8053200
C C 1.0 0.6064500 0.7874500 0.7657800
C C 1.0 0.6320500 0.7407500 0.7799200
C C 1.0 0.6050000 0.7454000 0.8012200
C C 1.0 0.5529500 0.7986500 0.8073200
C C 1.0 0.5297000 0.8432000 0.7926400
C C 1.0 0.6272500 0.6948500 0.8169300
C C 1.0 0.5887500 0.8505500 0.9587200
C C 1.0 0.6552000 0.8780000 0.9730400
C C 1.0 0.7030500 0.9334500 0.9681100
C C 1.0 0.6744000 0.9606000 0.9486300
C C 1.0 0.6060000 0.9299000 0.9354100
C C 1.0 0.7775000 0.9664000 0.9837200
C C 1.0 0.6238500 0.9619500 0.1357000
C C 1.0 0.5106500 0.9621500 0.1652600
C C 1.0 0.4487000 0.9793000 0.1321300
C C 1.0 0.7512000 0.9648000 0.1062500
C C 1.0 0.7368000 0.9090000 0.0926600
C C 1.0 0.3948000 0.9643000 0.1966300
C C 1.0 0.3861500 0.9277500 0.2171000
C C 1.0 0.2590000 0.0021000 0.1279300
C C 1.0 0.2516000 0.0654000 0.1386600
C C 1.0 0.3779500 0.8030500 0.0991200
C C 1.0 0.2951000 0.8136000 0.1132600
C C 1.0 0.3156000 0.8248000 0.1345600
C C 1.0 0.4215000 0.8242000 0.1406600
C C 1.0 0.4999500 0.8135500 0.1259800
C C 1.0 0.2286500 0.8389500 0.1502700
C C 1.0 0.4814500 0.7803500 0.2920600
C C 1.0 0.4894000 0.7334000 0.3063800
C C 1.0 0.5486500 0.6817500 0.3014500
C C 1.0 0.6037000 0.6825000 0.2819700
C C 1.0 0.5918500 0.7320500 0.2687500
C C 1.0 0.5608500 0.6280500 0.3170600
C C 1.0 0.5767000 0.0000000 0.5000000
C C 1.0 0.2116500 0.2116500 0.8333300
C C 1.0 0.1440000 0.8560000 0.6666700
C C 1.0 0.7120000 0.0000000 0.0000000
N N 1.0 0.6883000 0.7413000 0.4558800
N N 1.0 0.6261000 0.7173000 0.4909000
N N 1.0 0.7504000 0.7985000 0.4867100
N N 1.0 0.5758500 0.6595500 0.4621800
N N 1.0 0.6845500 0.7736500 0.5196400
N N 1.0 0.8016000 0.8234000 0.4527900
N N 1.0 0.4644000 0.8582000 0.4382400
N N 1.0 0.4066000 0.8443000 0.6064100
N N 1.0 0.2678000 0.7852000 0.7892100
N N 1.0 0.2629000 0.8283000 0.8242300
N N 1.0 0.3225500 0.7255500 0.8200400
N N 1.0 0.2014000 0.8823000 0.7955100
N N 1.0 0.3182000 0.7709000 0.8529700
N N 1.0 0.3343000 0.6875000 0.7861200
N N 1.0 0.5551000 0.8387000 0.7715700
N N 1.0 0.5631500 0.8745500 0.9397400
N N 1.0 0.5439000 0.9735000 0.1225500
N N 1.0 0.6110000 0.9544000 0.1575700
N N 1.0 0.4270500 0.9759500 0.1533800
N N 1.0 0.7227500 0.9581500 0.1288500
N N 1.0 0.4972500 0.9554500 0.1863100
N N 1.0 0.3641000 0.9891000 0.1194600
N N 1.0 0.4805000 0.8031000 0.1049100
N N 1.0 0.5302500 0.7811500 0.2730800
O O 1.0 0.4590000 0.7260000 0.4334400
O O 1.0 0.4751000 0.6548000 0.4080400
O O 1.0 0.6360000 0.8072000 0.5600700
O O 1.0 0.7241000 0.8962000 0.5567200
O O 1.0 0.5085500 0.3657500 0.4884900
O O 1.0 0.5113000 0.2944000 0.4631300
O O 1.0 0.3595000 0.9075000 0.7667700
O O 1.0 0.2446500 0.9350500 0.7413700
O O 1.0 0.3928000 0.7784000 0.8934000
O O 1.0 0.4822500 0.6898500 0.8900500
O O 1.0 0.7943500 0.0628500 0.8218200
O O 1.0 0.6859500 0.0971500 0.7964600
O O 1.0 0.6815000 0.8665000 0.1001100
O O 1.0 0.7802500 0.9101500 0.0747100
O O 1.0 0.4712000 0.9144000 0.2267400
O O 1.0 0.2936500 0.9139500 0.2233900
O O 1.0 0.1971000 0.0714000 0.1551600
O O 1.0 0.3027500 0.1084500 0.1298000
