data_

_audit_creation_date      'June 11, 2021'
_audit_creation_method    'Draft CIF file generated with Atomsk'
 
_chemical_name_common             ?
_chemical_melting_point           ?
_chemical_formula_iupac           'Cu12 H24 C72 O48'
_chemical_formula_moiety          'Cu12 H24 C72 O48'
_chemical_formula_sum             'Cu12 H24 C72 O48'
_chemical_formula_weight          2419.488
_chemical_compound_source         ?
_chemical_absolute_configuration  ?
_exptl_crystal_description        'EDIT-ENTRY'
_diffrn_measurement_device_type   'EDIT-ENTRY'
 
_space_group_IT_number            1
_space_group_crystal_system       triclinic
_symmetry_space_group_name_Hall   'P 1'
_symmetry_space_group_name_H-M    'P 1'
 
loop_
_space_group_symop_operation_xyz
'+x,+y,+z'
 
_cell_length_a                    18.6215
_cell_length_b                    18.6215
_cell_length_c                    18.6215
_cell_angle_alpha                 60.0000
_cell_angle_beta                  60.0000
_cell_angle_gamma                 60.0000
_cell_volume                      3228.5981
 
loop_
 _atom_site_label
 _atom_site_type_symbol
 _atom_site_fract_x
 _atom_site_fract_y
 _atom_site_fract_z
Cu1  Cu  0.500000  0.929850  0.500000
Cu2  Cu  0.929850  0.500000  0.070150
Cu3  Cu  0.500000  0.070150  0.500000
Cu4  Cu  0.070150  0.500000  0.929850
Cu5  Cu  0.500000  0.500000  0.070150
Cu6  Cu  0.929850  0.070150  0.500000
Cu7  Cu  0.500000  0.500000  0.929850
Cu8  Cu  0.070150  0.929850  0.500000
Cu9  Cu  0.500000  0.070150  0.929850
Cu10  Cu  0.929850  0.500000  0.500000
Cu11  Cu  0.500000  0.929850  0.070150
Cu12  Cu  0.070150  0.500000  0.500000
H1  H  0.466700  0.772300  0.772300
H2  H  0.772300  0.466700  0.988700
H3  H  0.772300  0.988700  0.466700
H4  H  0.988700  0.772300  0.772300
H5  H  0.466700  0.772300  0.988700
H6  H  0.772300  0.988700  0.772300
H7  H  0.772300  0.466700  0.772300
H8  H  0.988700  0.772300  0.466700
H9  H  0.466700  0.988700  0.772300
H10  H  0.772300  0.772300  0.466700
H11  H  0.772300  0.772300  0.988700
H12  H  0.988700  0.466700  0.772300
H13  H  0.227700  0.533300  0.227700
H14  H  0.533300  0.227700  0.011300
H15  H  0.011300  0.227700  0.533300
H16  H  0.227700  0.011300  0.227700
H17  H  0.227700  0.533300  0.011300
H18  H  0.011300  0.227700  0.227700
H19  H  0.533300  0.227700  0.227700
H20  H  0.227700  0.011300  0.533300
H21  H  0.011300  0.533300  0.227700
H22  H  0.227700  0.227700  0.533300
H23  H  0.227700  0.227700  0.011300
H24  H  0.533300  0.011300  0.227700
C1  C  0.474860  0.930900  0.663340
C2  C  0.467480  0.887300  0.757920
C3  C  0.930900  0.474860  0.930900
C4  C  0.887300  0.467480  0.887300
C5  C  0.663340  0.930900  0.474860
C6  C  0.757920  0.887300  0.467480
C7  C  0.930900  0.663340  0.930900
C8  C  0.887300  0.757920  0.887300
C9  C  0.474860  0.663340  0.930900
C10  C  0.467480  0.757920  0.887300
C11  C  0.930900  0.930900  0.663340
C12  C  0.887300  0.887300  0.757920
C13  C  0.663340  0.474860  0.930900
C14  C  0.757920  0.467480  0.887300
C15  C  0.930900  0.930900  0.474860
C16  C  0.887300  0.887300  0.467480
C17  C  0.474860  0.930900  0.930900
C18  C  0.467480  0.887300  0.887300
C19  C  0.930900  0.663340  0.474860
C20  C  0.887300  0.757920  0.467480
C21  C  0.663340  0.930900  0.930900
C22  C  0.757920  0.887300  0.887300
C23  C  0.930900  0.474860  0.663340
C24  C  0.887300  0.467480  0.757920
C25  C  0.069100  0.525140  0.336660
C26  C  0.112700  0.532520  0.242080
C27  C  0.525140  0.069100  0.069100
C28  C  0.532520  0.112700  0.112700
C29  C  0.069100  0.336660  0.525140
C30  C  0.112700  0.242080  0.532520
C31  C  0.336660  0.069100  0.069100
C32  C  0.242080  0.112700  0.112700
C33  C  0.336660  0.525140  0.069100
C34  C  0.242080  0.532520  0.112700
C35  C  0.069100  0.069100  0.336660
C36  C  0.112700  0.112700  0.242080
C37  C  0.525140  0.336660  0.069100
C38  C  0.532520  0.242080  0.112700
C39  C  0.069100  0.069100  0.525140
C40  C  0.112700  0.112700  0.532520
C41  C  0.069100  0.525140  0.069100
C42  C  0.112700  0.532520  0.112700
C43  C  0.336660  0.069100  0.525140
C44  C  0.242080  0.112700  0.532520
C45  C  0.069100  0.336660  0.069100
C46  C  0.112700  0.242080  0.112700
C47  C  0.525140  0.069100  0.336660
C48  C  0.532520  0.112700  0.242080
C49  C  0.467140  0.801000  0.801000
C50  C  0.801000  0.467140  0.930860
C51  C  0.801000  0.930860  0.467140
C52  C  0.930860  0.801000  0.801000
C53  C  0.467140  0.801000  0.930860
C54  C  0.801000  0.930860  0.801000
C55  C  0.801000  0.467140  0.801000
C56  C  0.930860  0.801000  0.467140
C57  C  0.467140  0.930860  0.801000
C58  C  0.801000  0.801000  0.467140
C59  C  0.801000  0.801000  0.930860
C60  C  0.930860  0.467140  0.801000
C61  C  0.199000  0.532860  0.199000
C62  C  0.532860  0.199000  0.069140
C63  C  0.069140  0.199000  0.532860
C64  C  0.199000  0.069140  0.199000
C65  C  0.199000  0.532860  0.069140
C66  C  0.069140  0.199000  0.199000
C67  C  0.532860  0.199000  0.199000
C68  C  0.199000  0.069140  0.532860
C69  C  0.069140  0.532860  0.199000
C70  C  0.199000  0.199000  0.532860
C71  C  0.199000  0.199000  0.069140
C72  C  0.532860  0.069140  0.199000
O1  O  0.479130  0.887210  0.626410
O2  O  0.887210  0.479130  0.007250
O3  O  0.626410  0.007250  0.479130
O4  O  0.007250  0.626410  0.887210
O5  O  0.479130  0.626410  0.007250
O6  O  0.887210  0.007250  0.626410
O7  O  0.626410  0.479130  0.887210
O8  O  0.007250  0.887210  0.479130
O9  O  0.479130  0.007250  0.887210
O10  O  0.887210  0.626410  0.479130
O11  O  0.626410  0.887210  0.007250
O12  O  0.007250  0.479130  0.626410
O13  O  0.112790  0.520870  0.373590
O14  O  0.520870  0.112790  0.992750
O15  O  0.992750  0.373590  0.520870
O16  O  0.373590  0.992750  0.112790
O17  O  0.373590  0.520870  0.992750
O18  O  0.992750  0.112790  0.373590
O19  O  0.520870  0.373590  0.112790
O20  O  0.112790  0.992750  0.520870
O21  O  0.992750  0.520870  0.112790
O22  O  0.373590  0.112790  0.520870
O23  O  0.112790  0.373590  0.992750
O24  O  0.520870  0.992750  0.373590
O25  O  0.520870  0.112790  0.373590
O26  O  0.112790  0.520870  0.992750
O27  O  0.373590  0.992750  0.520870
O28  O  0.992750  0.373590  0.112790
O29  O  0.520870  0.373590  0.992750
O30  O  0.112790  0.992750  0.373590
O31  O  0.373590  0.520870  0.112790
O32  O  0.992750  0.112790  0.520870
O33  O  0.520870  0.992750  0.112790
O34  O  0.112790  0.373590  0.520870
O35  O  0.373590  0.112790  0.992750
O36  O  0.992750  0.520870  0.373590
O37  O  0.887210  0.479130  0.626410
O38  O  0.479130  0.887210  0.007250
O39  O  0.007250  0.626410  0.479130
O40  O  0.626410  0.007250  0.887210
O41  O  0.626410  0.479130  0.007250
O42  O  0.007250  0.887210  0.626410
O43  O  0.479130  0.626410  0.887210
O44  O  0.887210  0.007250  0.479130
O45  O  0.007250  0.479130  0.887210
O46  O  0.626410  0.887210  0.479130
O47  O  0.887210  0.626410  0.007250
O48  O  0.479130  0.007250  0.626410
