data_WODVOB_cleanC2/m
# Symmetrized structure with precision = 1e-10
_cell_length_a                  24.36089
_cell_length_b                  15.388
_cell_length_c                  11.609
_cell_angle_alpha               90
_cell_angle_beta                118.4595
_cell_angle_gamma               90
_symmetry_space_group_name_H-M  'C2/m'
_symmetry_Int_Tables_number     12

loop_
_atom_site_label
_atom_site_type_symbol
_atom_site_occupancy
_atom_site_fract_x
_atom_site_fract_y
_atom_site_fract_z
O O 1.0 0.9916000 0.9071000 0.6497000
C C 1.0 0.1374000 0.7246000 0.0288000
H H 1.0 0.1579000 0.6913000 0.1044000
O O 1.0 0.9831000 0.8057000 0.8237000
H H 1.0 0.9684000 0.8375000 0.7594000
C C 1.0 0.0459000 0.7958000 0.8679000
C C 1.0 0.1721000 0.7586000 0.9707000
N N 1.0 0.2365000 0.7383000 0.0321000
C C 1.0 0.0795000 0.8291000 0.8095000
C C 1.0 0.1418000 0.8111000 0.8615000
H H 1.0 0.1641000 0.8345000 0.8225000
C C 1.0 0.0488000 0.8861000 0.6896000
C C 1.0 0.0755000 0.7384000 0.9788000
H H 1.0 0.0528000 0.7118000 0.0145000
O O 1.0 0.0803000 0.9088000 0.6377000
H H 1.0 0.4472000 0.2118000 0.9855000
O O 1.0 0.4197000 0.4088000 0.3623000
O O 1.0 0.5084000 0.5929000 0.3503000
C C 1.0 0.3626000 0.7754000 0.9712000
H H 1.0 0.3421000 0.8087000 0.8956000
O O 1.0 0.5169000 0.6943000 0.1763000
H H 1.0 0.5316000 0.6625000 0.2406000
C C 1.0 0.4541000 0.7042000 0.1321000
C C 1.0 0.3279000 0.7414000 0.0293000
N N 1.0 0.2635000 0.7617000 0.9679000
C C 1.0 0.4205000 0.6709000 0.1905000
C C 1.0 0.3582000 0.6889000 0.1385000
H H 1.0 0.3359000 0.6655000 0.1775000
C C 1.0 0.4512000 0.6139000 0.3104000
C C 1.0 0.4245000 0.7616000 0.0212000
H H 1.0 0.4472000 0.7882000 0.9855000
